Version 4
SHEET 1 1336 752
WIRE -224 -288 -736 -288
WIRE -64 -288 -224 -288
WIRE 896 -288 -64 -288
WIRE -224 -224 -224 -288
WIRE -64 -224 -64 -288
WIRE 896 -224 896 -288
WIRE 80 -192 32 -192
WIRE 160 -192 112 -192
WIRE 32 -128 32 -192
WIRE 80 -128 32 -128
WIRE 160 -128 112 -128
WIRE 896 -128 896 -144
WIRE -64 -112 -64 -144
WIRE 576 -112 528 -112
WIRE 624 -112 608 -112
WIRE 704 -112 688 -112
WIRE 816 -112 736 -112
WIRE -224 -80 -224 -144
WIRE 32 -32 32 -128
WIRE 48 -32 32 -32
WIRE 96 -32 80 -32
WIRE 176 -32 160 -32
WIRE 224 -32 208 -32
WIRE 720 -32 512 -32
WIRE 816 -32 816 -112
WIRE 816 -32 720 -32
WIRE 896 -32 896 -96
WIRE 896 -32 816 -32
WIRE 512 0 512 -32
WIRE 720 0 720 -32
WIRE -64 16 -64 -80
WIRE 896 16 896 -32
WIRE 928 16 896 16
WIRE 992 16 960 16
WIRE 512 48 512 32
WIRE 720 48 720 32
WIRE -736 64 -736 -288
WIRE -64 80 -64 48
WIRE 224 80 224 -32
WIRE 256 80 224 80
WIRE 304 80 288 80
WIRE 416 80 384 80
WIRE 896 96 896 16
WIRE 416 112 416 80
WIRE -224 128 -224 -48
WIRE -176 128 -224 128
WIRE -128 128 -144 128
WIRE 512 128 512 112
WIRE 256 144 192 144
WIRE 720 144 720 128
WIRE 896 144 896 128
WIRE 192 176 192 144
WIRE 256 176 256 144
WIRE 512 192 512 160
WIRE 528 192 512 192
WIRE 576 192 560 192
WIRE 656 192 640 192
WIRE 720 192 720 176
WIRE 720 192 688 192
WIRE 768 192 720 192
WIRE 832 192 800 192
WIRE -64 208 -64 176
WIRE 416 224 416 144
WIRE 512 224 512 192
WIRE 512 224 416 224
WIRE 192 240 192 208
WIRE 256 240 256 208
WIRE -64 272 -64 240
WIRE -48 272 -64 272
WIRE 512 288 512 224
WIRE -64 320 -64 272
WIRE -224 336 -224 128
WIRE 512 336 512 288
WIRE -224 384 -224 368
WIRE -64 384 -64 352
WIRE 512 384 512 368
WIRE -736 544 -736 144
WIRE -224 544 -224 464
WIRE -224 544 -736 544
WIRE -64 544 -64 464
WIRE -64 544 -224 544
WIRE 192 544 192 304
WIRE 192 544 -64 544
WIRE 256 544 256 304
WIRE 256 544 192 544
WIRE 512 544 512 464
WIRE 512 544 256 544
WIRE 896 544 896 240
WIRE 896 544 512 544
WIRE -736 592 -736 544
FLAG -736 592 0
FLAG -736 -288 VDD
FLAG 32 -32 JP2
IOPIN 32 -32 BiDir
FLAG 224 -32 JP3
IOPIN 224 -32 BiDir
FLAG 896 16 JP4
IOPIN 896 16 BiDir
FLAG 512 288 JP6
IOPIN 512 288 BiDir
FLAG 720 192 JP7
IOPIN 720 192 BiDir
FLAG -48 272 JP5
IOPIN -48 272 BiDir
FLAG -224 128 JP1
IOPIN -224 128 BiDir
FLAG 160 -128 AINH
IOPIN 160 -128 BiDir
FLAG 992 16 BINH
IOPIN 992 16 BiDir
FLAG 528 -112 JP1
IOPIN 528 -112 BiDir
FLAG 160 -192 AWG1
IOPIN 160 -192 BiDir
DATAFLAG 192 -192 ""
SYMBOL voltage -736 48 R0
SYMATTR InstName V1
SYMATTR Value 5.0
SYMBOL cross_point 96 -128 M0
SYMATTR InstName X1
SYMBOL cross_point 944 16 M0
SYMATTR InstName X2
SYMBOL npn -128 80 R0
SYMATTR InstName Q2
SYMATTR Value 2N3904
SYMBOL cross_point -160 128 M0
SYMATTR InstName XBL2
SYMBOL cross_point -64 224 R90
SYMATTR InstName XBL1
SYMBOL cross_point -64 32 M270
SYMATTR InstName XBL3
SYMBOL cross_point 256 192 R270
SYMATTR InstName XTL4
SYMBOL cross_point 896 112 R270
SYMATTR InstName XBL6
SYMBOL cross_point 784 192 M0
SYMATTR InstName XBL5
SYMBOL res -240 -128 M180
WINDOW 0 36 76 Left 2
WINDOW 3 36 40 Left 2
SYMATTR InstName R1
SYMATTR Value 220k
SYMBOL cross_point -224 -64 R90
SYMATTR InstName XTL11
SYMBOL res -240 480 M180
WINDOW 0 36 76 Left 2
WINDOW 3 36 40 Left 2
SYMATTR InstName R2
SYMATTR Value 39k
SYMBOL cross_point -224 352 M270
SYMATTR InstName XBL9
SYMBOL cross_point 192 192 R270
SYMATTR InstName XTL5
SYMBOL res -80 368 R0
SYMATTR InstName R3
SYMATTR Value 1k
SYMBOL cross_point -64 336 R270
SYMATTR InstName XTL3
SYMBOL res -80 -240 R0
SYMATTR InstName R4
SYMATTR Value 10k
SYMBOL cross_point -64 -96 M90
SYMATTR InstName XTL15
SYMBOL res 400 64 R90
WINDOW 0 0 56 VBottom 2
WINDOW 3 32 56 VTop 2
SYMATTR InstName R5
SYMATTR Value 100k
SYMBOL cross_point 272 80 M0
SYMATTR InstName XBL10
SYMBOL cross_point 416 128 R90
SYMATTR InstName XTL10
SYMBOL res 704 32 R0
SYMATTR InstName R7
SYMATTR Value 220k
SYMBOL res 496 368 R0
SYMATTR InstName R6
SYMATTR Value 2.7k
SYMBOL cross_point 512 352 R270
SYMATTR InstName XTL6
SYMBOL res 880 -240 R0
SYMATTR InstName R8
SYMATTR Value 10k
SYMBOL cap 160 -48 R90
WINDOW 0 0 32 VBottom 2
WINDOW 3 32 32 VTop 2
SYMATTR InstName C1
SYMATTR Value 10µ
SYMBOL cross_point 64 -32 R180
SYMATTR InstName XTL7
SYMBOL cross_point 192 -32 M180
SYMATTR InstName XBL7
SYMBOL npn 832 144 R0
SYMATTR InstName Q1
SYMATTR Value 2N3904
SYMBOL diode 208 304 R180
WINDOW 0 24 64 Left 2
WINDOW 3 24 0 Left 2
SYMATTR InstName D1
SYMATTR Value 1N914
SYMBOL diode 240 240 R0
SYMATTR InstName D2
SYMATTR Value 1N914
SYMBOL cross_point 896 -112 M90
SYMATTR InstName XTL16
SYMBOL cross_point 720 160 M90
SYMATTR InstName XBL8
SYMBOL cross_point 720 16 R270
SYMATTR InstName XTL8
SYMBOL cap 640 176 R90
WINDOW 0 0 32 VBottom 2
WINDOW 3 32 32 VTop 2
SYMATTR InstName C2
SYMATTR Value 10n
SYMBOL cross_point 544 192 M0
SYMATTR InstName XTL13
SYMBOL cross_point 672 192 R0
SYMATTR InstName XTL12
SYMBOL cap 528 112 R180
WINDOW 0 24 56 Left 2
WINDOW 3 24 8 Left 2
SYMATTR InstName C3
SYMATTR Value 10n
SYMBOL cross_point 512 16 M270
SYMATTR InstName XBL12
SYMBOL cross_point 512 144 R90
SYMATTR InstName XBL13
SYMBOL cap 688 -128 R90
WINDOW 0 0 32 VBottom 2
WINDOW 3 32 32 VTop 2
SYMATTR InstName C4
SYMATTR Value 10µ
SYMBOL cross_point 592 -112 R180
SYMATTR InstName XBL14
SYMBOL cross_point 720 -112 M180
SYMATTR InstName XTL14
SYMBOL cross_point 96 -192 M0
SYMATTR InstName X3
TEXT -616 -224 Left 2 !.tran 0 25m 0
TEXT 312 -192 Left 2 ;Q1 is a multiple-feedback-bandpass-filter (MFBF).
TEXT -696 240 Left 2 ;Q2 is an inverting amplifier, \nwith an unloaded gain set by R4/R3. \nD1 and D2 together with R4 form a clipper \nto make sure that the signal offered to the \nMFBF is of constant level.
