Version 4
SHEET 1 1156 752
WIRE -64 -288 -736 -288
WIRE 96 -288 -64 -288
WIRE 656 -288 96 -288
WIRE 880 -288 656 -288
WIRE -64 -224 -64 -288
WIRE 96 -224 96 -288
WIRE 656 -224 656 -288
WIRE -64 -112 -64 -144
WIRE 656 -80 656 -144
WIRE -64 -64 -64 -80
WIRE -64 -32 -64 -64
WIRE 176 -32 -64 -32
WIRE 240 -32 208 -32
WIRE 352 -32 320 -32
WIRE 432 -32 384 -32
WIRE 480 -32 432 -32
WIRE 544 -32 480 -32
WIRE 592 -32 576 -32
WIRE 480 0 480 -32
WIRE -64 16 -64 -32
WIRE -560 32 -608 32
WIRE -528 32 -560 32
WIRE -352 32 -496 32
WIRE 656 32 656 16
WIRE 480 48 480 32
WIRE 880 64 880 -288
WIRE -64 80 -64 48
WIRE 96 80 96 -144
WIRE 656 112 656 64
WIRE 752 112 656 112
WIRE 816 112 784 112
WIRE -736 128 -736 -288
WIRE -352 128 -352 32
WIRE -336 128 -352 128
WIRE -288 128 -304 128
WIRE -128 128 -208 128
WIRE 176 128 160 128
WIRE 256 128 208 128
WIRE 480 128 480 112
WIRE -400 176 -448 176
WIRE -352 176 -368 176
WIRE 480 176 480 160
WIRE 656 176 656 112
WIRE 656 176 480 176
WIRE -64 208 -64 176
WIRE 96 208 96 176
WIRE 656 208 656 176
WIRE -416 224 -448 224
WIRE -400 224 -416 224
WIRE -352 224 -352 176
WIRE -352 224 -368 224
WIRE -64 256 -64 240
WIRE 16 256 -64 256
WIRE 96 256 96 240
WIRE 96 256 16 256
WIRE 976 272 944 272
WIRE 1040 272 1008 272
WIRE -352 304 -352 224
WIRE -320 304 -352 304
WIRE -256 304 -288 304
WIRE -144 304 -176 304
WIRE 256 304 256 128
WIRE 256 304 -112 304
WIRE 16 320 16 256
WIRE 880 320 880 160
WIRE 896 320 880 320
WIRE 944 320 944 272
WIRE 944 320 928 320
WIRE 992 320 944 320
WIRE -560 336 -560 32
WIRE 656 352 656 208
WIRE 16 384 16 352
WIRE -416 416 -416 224
WIRE 656 416 656 384
WIRE 880 416 880 320
WIRE -736 544 -736 208
WIRE -560 544 -560 416
WIRE -560 544 -736 544
WIRE -416 544 -416 496
WIRE -416 544 -560 544
WIRE 16 544 16 464
WIRE 16 544 -416 544
WIRE 656 544 656 496
WIRE 656 544 16 544
WIRE 880 544 880 496
WIRE 880 544 656 544
WIRE -736 592 -736 544
WIRE 256 592 256 304
WIRE 560 592 256 592
WIRE 624 592 592 592
WIRE 736 592 704 592
WIRE 992 592 992 320
WIRE 992 592 768 592
FLAG -736 592 0
FLAG -736 -288 VDD
FLAG -352 176 JP2
IOPIN -352 176 BiDir
FLAG -64 -64 JP3
IOPIN -64 -64 BiDir
FLAG 256 128 JP8
IOPIN 256 128 BiDir
FLAG 432 -32 JP6
IOPIN 432 -32 BiDir
FLAG 656 208 JP7
IOPIN 656 208 BiDir
FLAG 96 256 JP5
IOPIN 96 256 BiDir
FLAG -352 32 JP1
IOPIN -352 32 BiDir
FLAG 992 320 JP4
IOPIN 992 320 BiDir
FLAG -448 224 AWG1
IOPIN -448 224 BiDir
FLAG -608 32 AWG2
IOPIN -608 32 BiDir
FLAG -448 176 AINH
IOPIN -448 176 BiDir
FLAG 1040 272 BINH
IOPIN 1040 272 BiDir
SYMBOL voltage -736 112 R0
SYMATTR InstName V1
SYMATTR Value 5.0
SYMBOL voltage -416 400 R0
WINDOW 123 0 0 Left 0
WINDOW 39 0 0 Left 0
SYMATTR InstName VAWGA
SYMATTR Value SINE(2.0 1.0 100 0)
SYMBOL voltage -560 320 R0
WINDOW 123 0 0 Left 0
WINDOW 39 0 0 Left 0
SYMATTR InstName VAWGB
SYMATTR Value 2.0
SYMBOL cross_point -384 224 R0
SYMATTR InstName X5
SYMBOL cross_point -512 32 R0
SYMATTR InstName X3
SYMBOL cross_point -384 176 R0
SYMATTR InstName X1
SYMBOL cross_point 992 272 M0
SYMATTR InstName X2
SYMBOL npn -128 80 R0
SYMATTR InstName Q1
SYMATTR Value 2N3904
SYMBOL npn 160 80 M0
SYMATTR InstName Q2
SYMATTR Value 2N3904
SYMBOL pnp 592 16 M180
SYMATTR InstName Q3
SYMATTR Value 2N3906
SYMBOL cross_point 192 128 R0
SYMATTR InstName XTL5
SYMBOL cross_point -64 224 R90
SYMATTR InstName XTL1
SYMBOL cross_point 96 224 R90
SYMATTR InstName XTL4
SYMBOL cross_point -64 32 M270
SYMATTR InstName XTL3
SYMBOL cross_point 560 -32 M0
SYMATTR InstName XTL11
SYMBOL cross_point 656 48 R90
SYMATTR InstName XTL12
SYMBOL cross_point 912 320 R0
SYMATTR InstName XTL13
SYMBOL cross_point 768 112 M0
SYMATTR InstName XTL14
SYMBOL res -192 112 R90
WINDOW 0 -3 71 VBottom 2
WINDOW 3 -30 29 VTop 2
SYMATTR InstName R1
SYMATTR Value 47k
SYMBOL cross_point -320 128 M0
SYMATTR InstName XBL2
SYMBOL res -160 288 R90
WINDOW 0 0 56 VBottom 2
WINDOW 3 32 56 VTop 2
SYMATTR InstName R2
SYMATTR Value 47k
SYMBOL cross_point -304 304 M0
SYMATTR InstName XBL3
SYMBOL cross_point -128 304 R0
SYMATTR InstName XBL6
SYMBOL res 0 368 R0
SYMATTR InstName R3
SYMATTR Value 1k
SYMBOL cross_point 16 336 R270
SYMATTR InstName XBL7
SYMBOL res -80 -240 R0
SYMATTR InstName R4
SYMATTR Value 1k
SYMBOL res 80 -240 R0
SYMATTR InstName R5
SYMATTR Value 1k
SYMBOL cross_point -64 -96 M90
SYMATTR InstName XTL7
SYMBOL res 336 -48 R90
WINDOW 0 0 56 VBottom 2
WINDOW 3 32 56 VTop 2
SYMATTR InstName R6
SYMATTR Value 1k
SYMBOL cross_point 192 -32 M0
SYMATTR InstName XBL8
SYMBOL cross_point 368 -32 R0
SYMATTR InstName XTL8
SYMBOL res 640 -240 R0
SYMATTR InstName R7
SYMATTR Value 150
SYMBOL res 640 400 R0
SYMATTR InstName R8
SYMATTR Value 100k
SYMBOL cross_point 656 368 R270
SYMATTR InstName XBL15
SYMBOL res 864 400 R0
SYMATTR InstName R9
SYMATTR Value 330
SYMBOL res 720 576 R90
WINDOW 0 0 56 VBottom 2
WINDOW 3 32 56 VTop 2
SYMATTR InstName R10
SYMATTR Value 47k
SYMBOL cross_point 576 592 M0
SYMATTR InstName XBL11
SYMBOL cross_point 752 592 R0
SYMATTR InstName XBL14
SYMBOL cap 464 48 R0
SYMATTR InstName C1
SYMATTR Value 350p
SYMBOL cross_point 480 144 R90
SYMATTR InstName XBL9
SYMBOL cross_point 480 16 M270
SYMATTR InstName XTL9
SYMBOL npn 816 64 R0
SYMATTR InstName Q4
SYMATTR Value 2N3904
TEXT -616 -224 Left 2 !.tran 0 25m 0
