Version 4
SHEET 1 2676 680
WIRE 256 -1520 176 -1520
WIRE 256 -1456 256 -1520
WIRE 208 -1440 32 -1440
WIRE 1120 -1408 1008 -1408
WIRE -624 -1376 -624 -1424
WIRE -432 -1376 -432 -1424
WIRE 256 -1344 256 -1360
WIRE 1008 -1344 1008 -1408
WIRE 960 -1328 832 -1328
WIRE 256 -1264 256 -1312
WIRE 256 -1264 176 -1264
WIRE 400 -1264 256 -1264
WIRE -624 -1248 -624 -1296
WIRE -432 -1248 -432 -1296
WIRE 176 -1232 176 -1264
WIRE 400 -1232 400 -1264
WIRE -752 -1200 -800 -1200
WIRE -640 -1200 -752 -1200
WIRE -416 -1200 -608 -1200
WIRE 176 -1168 176 -1200
WIRE 400 -1168 400 -1200
WIRE 720 -1168 672 -1168
WIRE 848 -1168 800 -1168
WIRE 912 -1168 880 -1168
WIRE 128 -1152 -16 -1152
WIRE 576 -1152 448 -1152
WIRE 672 -1152 672 -1168
WIRE -480 -1136 -512 -1136
WIRE -416 -1136 -416 -1200
WIRE -416 -1136 -448 -1136
WIRE -752 -1120 -752 -1200
WIRE 912 -1088 912 -1168
WIRE 1008 -1072 1008 -1216
WIRE 1104 -1072 1008 -1072
WIRE 176 -1056 176 -1072
WIRE 912 -1024 912 -1056
WIRE -752 -1008 -752 -1040
WIRE -416 -1008 -416 -1136
WIRE -368 -1008 -416 -1008
WIRE -288 -1008 -336 -1008
WIRE -160 -1008 -208 -1008
WIRE -96 -1008 -128 -1008
WIRE -64 -1008 -96 -1008
WIRE -16 -1008 -16 -1152
WIRE -16 -1008 -32 -1008
WIRE 32 -992 32 -1440
WIRE 64 -992 32 -992
WIRE 128 -992 96 -992
WIRE 176 -992 176 -1024
WIRE 176 -992 128 -992
WIRE 400 -992 400 -1072
WIRE 432 -992 400 -992
WIRE 480 -992 464 -992
WIRE 608 -992 480 -992
WIRE 672 -992 672 -1120
WIRE 672 -992 640 -992
WIRE 736 -992 672 -992
WIRE 768 -992 736 -992
WIRE 832 -992 832 -1328
WIRE 832 -992 800 -992
WIRE 1104 -992 1104 -1072
WIRE 1136 -992 1104 -992
WIRE 1216 -992 1168 -992
WIRE 1008 -976 1008 -1072
WIRE 1008 -976 976 -976
WIRE 176 -944 176 -992
WIRE 912 -944 912 -960
WIRE 176 -896 176 -912
WIRE 400 -896 400 -992
WIRE 912 -896 912 -912
WIRE 976 -896 976 -976
WIRE 976 -896 912 -896
WIRE 1008 -896 1008 -976
WIRE 1008 -832 1008 -864
WIRE -16 -816 -16 -1008
WIRE 128 -816 -16 -816
WIRE 576 -816 576 -1152
WIRE 576 -816 448 -816
WIRE 576 -800 576 -816
WIRE 176 -768 176 -800
WIRE 400 -768 400 -800
WIRE 832 -752 832 -992
WIRE 960 -752 832 -752
WIRE 576 -736 576 -768
WIRE 176 -704 176 -736
WIRE 256 -704 176 -704
WIRE 400 -704 400 -736
WIRE 400 -704 256 -704
WIRE 576 -704 576 -736
WIRE 576 -656 576 -672
WIRE 1008 -656 1008 -736
WIRE 1024 -656 1008 -656
WIRE 256 -640 256 -704
WIRE 256 -592 256 -608
WIRE 576 -560 576 -576
WIRE 816 -560 752 -560
WIRE 912 -560 848 -560
WIRE 912 -528 912 -560
WIRE 32 -512 32 -992
WIRE 208 -512 32 -512
WIRE 576 -480 576 -528
WIRE 752 -480 752 -560
WIRE 752 -480 576 -480
WIRE 256 -432 256 -496
WIRE 304 -432 256 -432
WIRE 912 -416 912 -448
WIRE -96 -352 -96 -1008
WIRE 464 -352 -96 -352
WIRE 528 -352 496 -352
WIRE 640 -352 608 -352
WIRE 1104 -352 1104 -992
WIRE 1104 -352 672 -352
FLAG -752 -1008 0
FLAG -416 -1200 JP16
IOPIN -416 -1200 BiDir
FLAG 128 -992 JP2
IOPIN 128 -992 BiDir
FLAG 400 -1264 JP3
IOPIN 400 -1264 BiDir
FLAG 752 -560 JP4
IOPIN 752 -560 BiDir
FLAG 480 -992 JP5
IOPIN 480 -992 BiDir
FLAG 400 -704 JP7
IOPIN 400 -704 BiDir
FLAG 912 -1168 JP9
IOPIN 912 -1168 BiDir
FLAG 576 -736 JP6
IOPIN 576 -736 BiDir
FLAG 912 -560 AWG2
IOPIN 912 -560 BiDir
FLAG 736 -992 JP15
IOPIN 736 -992 BiDir
FLAG -800 -1200 AWG1
IOPIN -800 -1200 BiDir
FLAG 1104 -1072 JP13
IOPIN 1104 -1072 BiDir
FLAG -96 -1008 JP1
IOPIN -96 -1008 BiDir
FLAG 912 -416 0
FLAG -432 -1424 VDD
IOPIN -432 -1424 BiDir
FLAG -432 -1248 0
FLAG -624 -1424 VEE
IOPIN -624 -1424 BiDir
FLAG -624 -1248 0
FLAG 1216 -992 BINH
IOPIN 1216 -992 BiDir
FLAG -512 -1136 AINH
IOPIN -512 -1136 BiDir
FLAG 1120 -1408 VDD
IOPIN 1120 -1408 BiDir
FLAG 1024 -656 VEE
IOPIN 1024 -656 BiDir
FLAG 176 -1520 VDD
IOPIN 176 -1520 BiDir
FLAG 304 -432 VEE
IOPIN 304 -432 BiDir
SYMBOL cap 896 -1024 R0
SYMATTR InstName C1
SYMATTR Value 700p
SYMBOL res 816 -1184 R90
WINDOW 0 0 56 VBottom 2
WINDOW 3 32 56 VTop 2
SYMATTR InstName R1
SYMATTR Value 100
SYMBOL res 624 -368 R90
WINDOW 0 0 56 VBottom 2
WINDOW 3 32 56 VTop 2
SYMATTR InstName R2
SYMATTR Value 100k
SYMBOL res -192 -1024 R90
WINDOW 0 0 56 VBottom 2
WINDOW 3 32 56 VTop 2
SYMATTR InstName R3
SYMATTR Value 100k
SYMBOL res 560 -672 R0
SYMATTR InstName R5
SYMATTR Value 22k
SYMBOL voltage -752 -1136 R0
WINDOW 123 31 123 Left 2
WINDOW 39 0 0 Left 0
SYMATTR Value2 AC 1 0
SYMATTR InstName VAWGA
SYMATTR Value SINE(2.5 0.5 500)
SYMBOL voltage 912 -544 R0
WINDOW 123 31 123 Left 2
WINDOW 39 0 0 Left 0
SYMATTR Value2 AC 1 0
SYMATTR InstName VAWGB
SYMATTR Value 2.5
SYMBOL voltage -432 -1392 R0
SYMATTR InstName V1
SYMATTR Value {VDD}
SYMBOL voltage -624 -1392 R0
SYMATTR InstName V3
SYMATTR Value {VEE}
SYMBOL pmos 208 -1360 M180
SYMATTR InstName M1
SYMATTR Value cd4007-pmos
SYMBOL cross_point 256 -1328 R90
SYMATTR InstName XTL2
SYMBOL cross_point 80 -992 M180
SYMATTR InstName XBL6
SYMBOL nmos 208 -592 R0
SYMATTR InstName M2
SYMATTR Value cd4007-nmos
SYMBOL cross_point 256 -624 R270
SYMATTR InstName XTL7
SYMBOL cross_point 480 -352 R180
SYMATTR InstName XBL16
SYMBOL cross_point 656 -352 R0
SYMATTR InstName XBR1
SYMBOL cross_point 576 -544 R90
SYMATTR InstName XBL9
SYMBOL cross_point 576 -688 R270
SYMATTR InstName XTL9
SYMBOL nmos 128 -896 R0
SYMATTR InstName M3
SYMATTR Value cd4007-nmos
SYMBOL cross_point 176 -752 R90
SYMATTR InstName XBL5
SYMBOL cross_point 176 -928 R270
SYMATTR InstName XBL4
SYMBOL nmos 448 -896 M0
WINDOW 3 58 94 Left 2
SYMATTR InstName M4
SYMATTR Value cd4007-nmos
SYMBOL cross_point 400 -752 M90
SYMATTR InstName XTL6
SYMBOL pmos 128 -1072 M180
WINDOW 3 56 60 Left 2
SYMATTR InstName M5
SYMATTR Value cd4007-pmos
SYMBOL pmos 448 -1072 R180
WINDOW 3 57 84 Left 2
SYMATTR InstName M6
SYMATTR Value cd4007-pmos
SYMBOL cross_point 176 -1216 R270
SYMATTR InstName XBL1
SYMBOL cross_point 400 -1216 R270
SYMATTR InstName XTL4
SYMBOL cross_point 448 -992 M180
SYMATTR InstName XTL3
SYMBOL cross_point 176 -1040 R90
SYMATTR InstName XBL2
SYMBOL cross_point -144 -1008 M180
SYMATTR InstName XTL15
SYMBOL cross_point -352 -1008 R180
SYMATTR InstName XTR1
SYMBOL cross_point -48 -1008 R180
SYMATTR InstName XBL3
SYMBOL cross_point 576 -784 M90
SYMATTR InstName XTL5
SYMBOL nmos 960 -832 R0
SYMATTR InstName M7
SYMATTR Value cd4007-nmos
SYMBOL cross_point 1008 -880 R270
SYMATTR InstName XTR8
SYMBOL cross_point 784 -992 M0
SYMATTR InstName XBR7
SYMBOL pmos 960 -1248 M180
SYMATTR InstName M8
SYMATTR Value cd4007-pmos
SYMBOL cross_point 1008 -1232 R90
SYMATTR InstName XTR3
SYMBOL cross_point 912 -928 R90
SYMATTR InstName XBR11
SYMBOL cross_point 912 -1072 R270
SYMATTR InstName XTR11
SYMBOL cross_point 864 -1168 R0
SYMATTR InstName XBR10
SYMBOL cross_point 672 -1136 R90
SYMATTR InstName XTR10
SYMBOL cross_point 832 -560 R180
SYMATTR InstName X1
SYMBOL cross_point -624 -1200 R0
SYMATTR InstName X2
SYMBOL cross_point -464 -1136 R0
SYMATTR InstName X3
SYMBOL cross_point 1152 -992 R180
SYMATTR InstName X4
SYMBOL cross_point 624 -992 M180
SYMATTR InstName X5
TEXT 528 -1432 Left 2 ;CMOS OTA Test Circuit
TEXT -576 -848 Left 2 !.tran 10m
TEXT -448 -848 Left 2 ;.ac dec 20 10 100k
TEXT 528 -1400 Left 2 ;DIPL1\nCD4007
TEXT 656 -1400 Left 2 ;DIPR1\nCD4007
TEXT -584 -1016 Left 2 !.global VDD\n.global VEE\n.param VDD=5\n.param VEE=0
TEXT -1312 -792 Left 3 ;Notes:\nNodes JP1-8 can connect directly to BB pins TL1-16, BL1-16 (left hand BB)\nNodes JP9-16 can connect directly to BB pins TR2-17, BR1-16 (right hand BB)\nBB pin TL17 can connect to any of JP1-4 and JP13-16\nBB pin TR1 can connect to any of JP1-4 and JP13-16\nNodes JP1-4 can connect directly to any of JP9-12 (and JP5-8*)\nNodes JP13-16 can connect directly to any of JP5-8 (and JP9-12*)\nAINH, BINH, CINH, AWG1, AWG2 can connect directly to any of JP1-4 and JP13-16
TEXT -576 -888 Left 2 !.lib CD4007.lib
