Version 4
SHEET 1 1172 680
SYMBOL TO_92_bjt -48 128 R0
SYMATTR InstName Q1
SYMBOL TO_92_mos 128 128 R0
SYMATTR InstName M1
SYMBOL BB_Pin 512 128 R0
SYMATTR InstName XTL1
SYMBOL res_long 80 192 R90
WINDOW 0 7 0 VBottom 2
WINDOW 3 24 0 VTop 2
SYMATTR InstName R1
SYMBOL res_medium 48 256 R90
WINDOW 0 7 0 VBottom 2
WINDOW 3 24 0 VTop 2
SYMATTR InstName R2
SYMBOL res_short 16 320 R90
WINDOW 0 7 0 VBottom 2
WINDOW 3 24 0 VTop 2
SYMATTR InstName R3
SYMBOL cross_point 416 96 R0
SYMATTR InstName XBL2
SYMBOL cp-dip8 16 512 R0
SYMATTR InstName U1
SYMBOL cp-dip14 288 512 R0
SYMATTR InstName U2
SYMBOL cp-dip16 752 512 R0
SYMATTR InstName U3
