Version 4
SHEET 1 3728 1156
WIRE 2592 -672 -16 -672
WIRE 2432 -640 -48 -640
WIRE 2592 -640 2592 -672
WIRE -48 -624 -48 -640
WIRE 2432 -624 2432 -640
WIRE 32 -560 -16 -560
WIRE 2384 -560 2336 -560
WIRE 32 -528 -16 -528
WIRE 2384 -528 2336 -528
WIRE 2592 -512 2592 -560
WIRE 32 -496 -16 -496
WIRE 2384 -496 2336 -496
WIRE 32 -464 -16 -464
WIRE 2384 -464 2336 -464
WIRE 32 -416 -16 -416
WIRE 2384 -416 2336 -416
WIRE 32 -384 -16 -384
WIRE 2384 -384 2336 -384
WIRE 32 -352 -16 -352
WIRE 2384 -352 2336 -352
WIRE 32 -320 -16 -320
WIRE 2384 -320 2336 -320
WIRE 2544 -240 2496 -240
WIRE 2544 -176 2496 -176
WIRE 2544 -112 2496 -112
WIRE 2432 -48 2400 -48
WIRE 2512 -48 2432 -48
WIRE 2656 16 2624 16
WIRE 2720 16 2656 16
WIRE 2432 80 2432 -48
WIRE 2656 80 2656 16
WIRE 2432 208 2432 160
WIRE 2656 208 2656 160
WIRE 32 608 -16 608
WIRE 2384 608 2336 608
WIRE 32 640 -16 640
WIRE 2384 640 2336 640
WIRE 32 672 -16 672
WIRE 2384 672 2336 672
WIRE 32 704 -16 704
WIRE 2384 704 2336 704
WIRE 32 752 -16 752
WIRE 2384 752 2336 752
WIRE 32 784 -16 784
WIRE 2384 784 2336 784
WIRE 32 816 -16 816
WIRE 2384 816 2336 816
WIRE 32 848 -16 848
WIRE 2384 848 2336 848
WIRE 2432 912 -48 912
WIRE -48 928 -48 912
WIRE 2432 928 2432 912
WIRE 2432 976 -48 976
WIRE 2432 1008 2432 976
WIRE 2432 1136 2432 1088
FLAG -16 -320 JP1
IOPIN -16 -320 BiDir
FLAG -16 -352 JP2
IOPIN -16 -352 BiDir
FLAG -16 -384 JP3
IOPIN -16 -384 BiDir
FLAG -16 -416 JP4
IOPIN -16 -416 BiDir
FLAG -16 848 JP8
IOPIN -16 848 BiDir
FLAG -16 816 JP7
IOPIN -16 816 BiDir
FLAG -16 784 JP6
IOPIN -16 784 BiDir
FLAG -16 752 JP5
IOPIN -16 752 BiDir
FLAG -16 -560 JP8
IOPIN -16 -560 BiDir
FLAG -16 -528 JP7
IOPIN -16 -528 BiDir
FLAG -16 -496 JP6
IOPIN -16 -496 BiDir
FLAG -16 -464 JP5
IOPIN -16 -464 BiDir
FLAG -16 608 JP1
IOPIN -16 608 BiDir
FLAG -16 640 JP2
IOPIN -16 640 BiDir
FLAG -16 672 JP3
IOPIN -16 672 BiDir
FLAG -16 704 JP4
IOPIN -16 704 BiDir
FLAG 2384 -320 JP9
IOPIN 2384 -320 BiDir
FLAG 2384 -352 JP10
IOPIN 2384 -352 BiDir
FLAG 2384 -384 JP11
IOPIN 2384 -384 BiDir
FLAG 2384 -416 JP12
IOPIN 2384 -416 BiDir
FLAG 2384 -560 JP16
IOPIN 2384 -560 BiDir
FLAG 2384 -528 JP15
IOPIN 2384 -528 BiDir
FLAG 2384 -496 JP14
IOPIN 2384 -496 BiDir
FLAG 2384 -464 JP13
IOPIN 2384 -464 BiDir
FLAG 2384 608 JP9
IOPIN 2384 608 BiDir
FLAG 2384 640 JP10
IOPIN 2384 640 BiDir
FLAG 2384 672 JP11
IOPIN 2384 672 BiDir
FLAG 2384 704 JP12
IOPIN 2384 704 BiDir
FLAG 2384 848 JP16
IOPIN 2384 848 BiDir
FLAG 2384 816 JP15
IOPIN 2384 816 BiDir
FLAG 2384 784 JP14
IOPIN 2384 784 BiDir
FLAG 2384 752 JP13
IOPIN 2384 752 BiDir
FLAG 2432 -624 0
FLAG 2592 -672 VDD
FLAG -48 -624 0
FLAG -16 -672 VDD
FLAG 2432 928 0
FLAG 2432 976 VEE
FLAG -48 928 0
FLAG -48 976 VEE
FLAG 2592 -512 0
FLAG 2432 1136 0
FLAG 2432 208 0
FLAG 2656 208 0
FLAG 2512 -48 AWG1
IOPIN 2512 -48 Out
FLAG 2720 16 AWG2
IOPIN 2720 16 Out
FLAG 2496 -240 AINH
IOPIN 2496 -240 In
FLAG 2496 -176 BINH
IOPIN 2496 -176 In
FLAG 2496 -112 CINH
IOPIN 2496 -112 In
SYMBOL BB_Pin 96 -176 R0
SYMATTR InstName XTL1
SYMBOL BB_Pin 160 -176 R0
SYMATTR InstName XTL2
SYMBOL BB_Pin 224 -176 R0
SYMATTR InstName XTL3
SYMBOL BB_Pin 288 -176 R0
SYMATTR InstName XTL4
SYMBOL BB_Pin 96 464 R180
SYMATTR InstName XBL1
SYMBOL BB_Pin 160 464 R180
SYMATTR InstName XBL2
SYMBOL BB_Pin 224 464 R180
SYMATTR InstName XBL3
SYMBOL BB_Pin 288 464 R180
SYMATTR InstName XBL4
SYMBOL BB_Pin 352 464 R180
SYMATTR InstName XBL5
SYMBOL BB_Pin 416 464 R180
SYMATTR InstName XBL6
SYMBOL BB_Pin 480 464 R180
SYMATTR InstName XBL7
SYMBOL BB_Pin 544 464 R180
SYMATTR InstName XBL8
SYMBOL BB_Pin 608 464 R180
SYMATTR InstName XBL9
SYMBOL BB_Pin 672 464 R180
SYMATTR InstName XBL10
SYMBOL BB_Pin 736 464 R180
SYMATTR InstName XBL11
SYMBOL BB_Pin 800 464 R180
SYMATTR InstName XBL12
SYMBOL BB_Pin 864 464 R180
SYMATTR InstName XBL13
SYMBOL BB_Pin 928 464 R180
SYMATTR InstName XBL14
SYMBOL BB_Pin 992 464 R180
SYMATTR InstName XBL15
SYMBOL BB_Pin 1056 464 R180
SYMATTR InstName XBL16
SYMBOL BB_Pin 1120 464 R180
SYMATTR InstName XBL17
SYMBOL BB_Pin 352 -176 R0
SYMATTR InstName XTL5
SYMBOL BB_Pin 416 -176 R0
SYMATTR InstName XTL6
SYMBOL BB_Pin 480 -176 R0
SYMATTR InstName XTL7
SYMBOL BB_Pin 544 -176 R0
SYMATTR InstName XTL8
SYMBOL BB_Pin 608 -176 R0
SYMATTR InstName XTL9
SYMBOL BB_Pin 672 -176 R0
SYMATTR InstName XTL10
SYMBOL BB_Pin 736 -176 R0
SYMATTR InstName XTL11
SYMBOL BB_Pin 800 -176 R0
SYMATTR InstName XTL12
SYMBOL BB_Pin 864 -176 R0
SYMATTR InstName XTL13
SYMBOL BB_Pin 928 -176 R0
SYMATTR InstName XTL14
SYMBOL BB_Pin 992 -176 R0
SYMATTR InstName XTL15
SYMBOL BB_Pin 1056 -176 R0
SYMATTR InstName XTL16
SYMBOL BB_Pin 1120 -176 R0
SYMATTR InstName XTL17
SYMBOL BB_Pin 1248 -176 R0
SYMATTR InstName XTR1
SYMBOL BB_Pin 1312 -176 R0
SYMATTR InstName XTR2
SYMBOL BB_Pin 1376 -176 R0
SYMATTR InstName XTR3
SYMBOL BB_Pin 1440 -176 R0
SYMATTR InstName XTR4
SYMBOL BB_Pin 1504 -176 R0
SYMATTR InstName XTR5
SYMBOL BB_Pin 1568 -176 R0
SYMATTR InstName XTR6
SYMBOL BB_Pin 1632 -176 R0
SYMATTR InstName XTR7
SYMBOL BB_Pin 1696 -176 R0
SYMATTR InstName XTR8
SYMBOL BB_Pin 1760 -176 R0
SYMATTR InstName XTR9
SYMBOL BB_Pin 1824 -176 R0
SYMATTR InstName XTR10
SYMBOL BB_Pin 1888 -176 R0
SYMATTR InstName XTR11
SYMBOL BB_Pin 1952 -176 R0
SYMATTR InstName XTR12
SYMBOL BB_Pin 2016 -176 R0
SYMATTR InstName XTR13
SYMBOL BB_Pin 2080 -176 R0
SYMATTR InstName XTR14
SYMBOL BB_Pin 2144 -176 R0
SYMATTR InstName XTR15
SYMBOL BB_Pin 2208 -176 R0
SYMATTR InstName XTR16
SYMBOL BB_Pin 2272 -176 R0
SYMATTR InstName XTR17
SYMBOL BB_Pin 1248 464 R180
SYMATTR InstName XBR1
SYMBOL BB_Pin 1312 464 R180
SYMATTR InstName XBR2
SYMBOL BB_Pin 1376 464 R180
SYMATTR InstName XBR3
SYMBOL BB_Pin 1440 464 R180
SYMATTR InstName XBR4
SYMBOL BB_Pin 1504 464 R180
SYMATTR InstName XBR5
SYMBOL BB_Pin 1568 464 R180
SYMATTR InstName XBR6
SYMBOL BB_Pin 1632 464 R180
SYMATTR InstName XBR7
SYMBOL BB_Pin 1696 464 R180
SYMATTR InstName XBR8
SYMBOL BB_Pin 1760 464 R180
SYMATTR InstName XBR9
SYMBOL BB_Pin 1824 464 R180
SYMATTR InstName XBR10
SYMBOL BB_Pin 1888 464 R180
SYMATTR InstName XBR11
SYMBOL BB_Pin 1952 464 R180
SYMATTR InstName XBR12
SYMBOL BB_Pin 2016 464 R180
SYMATTR InstName XBR13
SYMBOL BB_Pin 2080 464 R180
SYMATTR InstName XBR14
SYMBOL BB_Pin 2144 464 R180
SYMATTR InstName XBR15
SYMBOL BB_Pin 2208 464 R180
SYMATTR InstName XBR16
SYMBOL BB_Pin 2272 464 R180
SYMATTR InstName XBR17
SYMBOL voltage 2592 -656 R0
SYMATTR InstName V1
SYMATTR Value 5
SYMBOL voltage 2432 992 R0
SYMATTR InstName V2
SYMATTR Value -5
SYMBOL voltage 2432 64 R0
SYMATTR InstName AWG1
SYMBOL voltage 2656 64 R0
SYMATTR InstName AWG2
SYMBOL cross_point 2560 -240 R0
SYMATTR InstName X1
SYMBOL cross_point 2560 -176 R0
SYMATTR InstName X2
SYMBOL cross_point 2560 -112 R0
SYMATTR InstName X3
SYMBOL cross_point 2384 -48 M0
SYMATTR InstName X4
SYMBOL cross_point 2608 16 M0
SYMATTR InstName X5
TEXT 2352 272 Left 3 ;Notes:\nNodes JP1-8 can connect directly to BB pins TL1-16, BL1-16 (left hand BB)\nNodes JP9-16 can connect directly to BB pins TR2-17, BR1-16 (right hand BB)\nBB pin TL17 can connect to any of JP1-4 and JP13-16\nBB pin TR1 can connect to any of JP1-4 and JP13-16\nNodes JP1-4 can connect directly to any of JP9-12 (and JP5-8*)\nNodes JP13-16 can connect directly to any of JP5-8 (and JP9-12*)\nAINH, BINH, CINH, AWG1, AWG2 can connect directly to any of JP1-4 and JP13-16
LINE Normal 1184 576 1184 -288 3
