Version 4
SHEET 1 1504 752
WIRE 624 -160 560 -160
WIRE 672 -160 624 -160
WIRE 736 -160 704 -160
WIRE 848 -160 816 -160
WIRE 896 -160 880 -160
WIRE 960 -160 896 -160
WIRE 144 -128 96 -128
WIRE 768 -80 736 -80
WIRE 48 -48 0 -48
WIRE 144 -48 144 -128
WIRE 144 -48 80 -48
WIRE 320 -48 288 -48
WIRE 384 0 272 0
WIRE 448 0 416 0
WIRE 560 0 528 0
WIRE 624 0 624 -160
WIRE 624 0 592 0
WIRE 144 16 144 -48
WIRE 736 32 736 -80
WIRE 624 48 624 0
WIRE 640 48 624 48
WIRE 704 48 672 48
WIRE 832 64 768 64
WIRE 896 64 896 -160
WIRE 896 64 864 64
WIRE 928 64 896 64
WIRE 1008 64 960 64
WIRE 144 80 144 48
WIRE 192 80 144 80
WIRE 320 80 320 -48
WIRE 320 80 224 80
WIRE 384 80 320 80
WIRE 448 80 416 80
WIRE 560 80 528 80
WIRE 624 80 592 80
WIRE 640 80 624 80
WIRE 704 80 672 80
WIRE -144 112 -240 112
WIRE -32 112 -112 112
WIRE 624 112 624 80
WIRE 624 112 528 112
WIRE 144 128 144 80
WIRE 624 128 624 112
WIRE 528 160 528 112
WIRE -32 176 -32 112
WIRE -32 176 -240 176
WIRE 272 176 272 0
WIRE 304 176 272 176
WIRE 624 192 624 160
WIRE -32 208 -32 176
WIRE 736 208 736 96
WIRE 768 208 736 208
WIRE -32 256 -32 240
WIRE 144 256 144 208
WIRE 192 256 144 256
WIRE 272 256 272 176
WIRE 272 256 224 256
WIRE 320 256 272 256
WIRE 384 256 352 256
WIRE 624 304 624 272
WIRE 144 352 144 256
WIRE -32 400 -32 336
WIRE 80 400 -32 400
WIRE 144 576 144 448
FLAG 144 576 0
FLAG 304 176 JP15
IOPIN 304 176 BiDir
FLAG 384 256 AINH
IOPIN 384 256 BiDir
FLAG 1008 64 BINH
IOPIN 1008 64 BiDir
FLAG -240 176 JP14
IOPIN -240 176 BiDir
FLAG 0 -48 AWG2
IOPIN 0 -48 BiDir
FLAG -240 112 AWG1
IOPIN -240 112 BiDir
FLAG 96 -128 JP13
IOPIN 96 -128 BiDir
FLAG 960 -160 JP16
IOPIN 960 -160 BiDir
FLAG 144 80 TR3
FLAG 768 -80 VDD
IOPIN 768 -80 Out
FLAG 768 208 VEE
IOPIN 768 208 Out
FLAG 288 -48 JP9
IOPIN 288 -48 BiDir
FLAG 560 -160 JP10
IOPIN 560 -160 BiDir
FLAG 624 304 0
FLAG 528 160 JP11
IOPIN 528 160 BiDir
SYMBOL cross_point 944 64 M0
SYMATTR InstName X1
SYMBOL cross_point 336 256 M0
SYMATTR InstName X2
SYMBOL cross_point 208 256 R0
SYMATTR InstName XBR3
SYMBOL res -48 240 R0
SYMATTR InstName R1
SYMATTR Value 47k
SYMBOL res 128 112 R0
SYMATTR InstName R2
SYMATTR Value 10
SYMBOL npn 80 352 R0
SYMATTR InstName Q1
SYMATTR Value 2N3904
SYMBOL cross_point 144 32 M270
SYMATTR InstName XTR3
SYMBOL cross_point -32 224 R270
SYMATTR InstName XTR2
SYMBOL cross_point -128 112 R0
SYMATTR InstName X3
SYMBOL cross_point 64 -48 R0
SYMATTR InstName X4
SYMBOL cross_point 208 80 M180
SYMATTR InstName X5
SYMBOL OpAmps\\OP27 736 0 R0
SYMATTR InstName U1
SYMBOL cross_point 848 64 R0
SYMATTR InstName XTR9
SYMBOL res 832 -176 R90
WINDOW 0 0 56 VBottom 2
WINDOW 3 32 56 VTop 2
SYMATTR InstName R3
SYMATTR Value 510k
SYMBOL cross_point 864 -160 R0
SYMATTR InstName XBR6
SYMBOL cross_point 688 -160 M0
SYMATTR InstName XTR6
SYMBOL cross_point 656 48 M0
SYMATTR InstName XBR8
SYMBOL res 640 288 R180
WINDOW 0 36 76 Left 2
WINDOW 3 36 40 Left 2
SYMATTR InstName R4
SYMATTR Value 510k
SYMBOL cross_point 624 144 M270
SYMATTR InstName XTR11
SYMBOL cross_point 656 80 M0
SYMATTR InstName XBR9
SYMBOL res 544 64 R90
WINDOW 0 0 56 VBottom 2
WINDOW 3 32 56 VTop 2
SYMATTR InstName R5
SYMATTR Value 100k
SYMBOL res 544 -16 R90
WINDOW 0 0 56 VBottom 2
WINDOW 3 32 56 VTop 2
SYMATTR InstName R6
SYMATTR Value 100k
SYMBOL cross_point 576 0 R0
SYMATTR InstName XBR12
SYMBOL cross_point 576 80 R0
SYMATTR InstName XBR13
SYMBOL cross_point 400 0 M0
SYMATTR InstName XTR12
SYMBOL cross_point 400 80 M0
SYMATTR InstName XTR14
TEXT -304 440 Left 2 !.tran 0 25m 0
TEXT 272 304 Left 3 ;Notes:\nNodes JP1-8 can connect directly to BB pins TL1-16, BL1-16 (left hand BB)\nNodes JP9-16 can connect directly to BB pins TR2-17, BR1-16 (right hand BB)\nBB pin TL17 can connect to any of JP1-4 and JP13-16\nBB pin TR1 can connect to any of JP1-4 and JP13-16\nNodes JP1-4 can connect directly to any of JP9-12 (and JP5-8*)\nNodes JP13-16 can connect directly to any of JP5-8 (and JP9-12*)\nAINH, BINH, CINH, AWG1, AWG2 can connect directly to any of JP1-4 and JP13-16
