Version 4
SHEET 1 2156 1032
WIRE -736 -480 -992 -480
WIRE -480 -480 -736 -480
WIRE -224 -480 -480 -480
WIRE 144 -480 -224 -480
WIRE 400 -480 144 -480
WIRE 656 -480 400 -480
WIRE -736 -432 -736 -480
WIRE 144 -432 144 -480
WIRE -480 -384 -480 -480
WIRE -224 -384 -224 -480
WIRE 400 -384 400 -480
WIRE 656 -384 656 -480
WIRE 144 -368 144 -400
WIRE 144 -368 112 -368
WIRE -736 -352 -736 -400
WIRE -736 -352 -784 -352
WIRE -736 -336 -736 -352
WIRE -480 -336 -480 -352
WIRE -224 -336 -224 -352
WIRE 144 -336 144 -368
WIRE 400 -336 400 -352
WIRE 656 -336 656 -352
WIRE -784 -320 -832 -320
WIRE -528 -320 -576 -320
WIRE -272 -320 -320 -320
WIRE 96 -320 48 -320
WIRE 352 -320 304 -320
WIRE 608 -320 560 -320
WIRE -736 -224 -736 -240
WIRE -480 -224 -480 -240
WIRE 144 -224 144 -240
WIRE 400 -224 400 -240
WIRE -928 -160 -992 -160
WIRE -896 -160 -928 -160
WIRE -832 -160 -832 -320
WIRE -832 -160 -864 -160
WIRE -480 -160 -480 -192
WIRE -432 -160 -480 -160
WIRE 400 -160 400 -192
WIRE 400 -160 -64 -160
WIRE -736 -144 -736 -192
WIRE -480 -144 -480 -160
WIRE -480 -144 -736 -144
WIRE 656 -144 656 -240
WIRE 688 -144 656 -144
WIRE 768 -144 720 -144
WIRE 800 -144 768 -144
WIRE -480 -128 -480 -144
WIRE -384 -128 -480 -128
WIRE -64 -128 -64 -160
WIRE -64 -128 -384 -128
WIRE -16 -128 -64 -128
WIRE 48 -128 48 -320
WIRE 48 -128 16 -128
WIRE 144 -128 144 -192
WIRE 208 -128 144 -128
WIRE 240 -128 208 -128
WIRE 304 -128 304 -320
WIRE 304 -128 272 -128
WIRE -928 -96 -928 -160
WIRE -624 -96 -928 -96
WIRE -576 -96 -576 -320
WIRE -576 -96 -592 -96
WIRE -384 -96 -384 -128
WIRE -368 -96 -384 -96
WIRE -320 -96 -320 -320
WIRE -320 -96 -336 -96
WIRE -224 -96 -224 -240
WIRE -192 -96 -224 -96
WIRE -112 -96 -160 -96
WIRE 208 -96 208 -128
WIRE 208 -96 -112 -96
WIRE 496 -96 208 -96
WIRE 560 -96 560 -320
WIRE 560 -96 528 -96
WIRE -1008 -64 -1072 -64
WIRE -928 -64 -928 -96
WIRE -928 -64 -976 -64
WIRE -736 -64 -736 -144
WIRE -480 -64 -480 -128
WIRE -112 -64 -112 -96
WIRE -64 -64 -112 -64
WIRE 144 -64 144 -128
WIRE 400 -64 400 -160
WIRE 656 -32 656 -144
WIRE -736 -16 -736 -32
WIRE -480 -16 -480 -32
WIRE -224 -16 -224 -96
WIRE 144 -16 144 -32
WIRE 400 -16 400 -32
WIRE 560 48 560 -96
WIRE 608 48 560 48
WIRE -832 64 -832 -160
WIRE -784 64 -832 64
WIRE -576 64 -576 -96
WIRE -528 64 -576 64
WIRE -320 64 -320 -96
WIRE -272 64 -320 64
WIRE 48 64 48 -128
WIRE 96 64 48 64
WIRE 304 64 304 -128
WIRE 352 64 304 64
WIRE 656 80 656 64
WIRE -480 96 -480 80
WIRE -224 96 -224 80
WIRE 400 96 400 80
WIRE -736 112 -736 80
WIRE -704 112 -736 112
WIRE 144 112 144 80
WIRE 176 112 144 112
WIRE -736 144 -736 112
WIRE 144 144 144 112
WIRE 1040 144 1040 96
WIRE 1168 144 1168 96
WIRE -736 224 -736 176
WIRE -736 224 -992 224
WIRE -480 224 -480 128
WIRE -480 224 -736 224
WIRE -224 224 -224 128
WIRE -224 224 -480 224
WIRE 144 224 144 176
WIRE 144 224 -224 224
WIRE 400 224 400 128
WIRE 400 224 144 224
WIRE 656 224 656 112
WIRE 656 224 400 224
WIRE -928 272 -928 -64
WIRE 16 272 -928 272
WIRE 1040 272 1040 224
WIRE 1168 272 1168 224
WIRE 16 320 16 272
WIRE 48 320 16 320
WIRE 128 320 80 320
WIRE 256 320 208 320
WIRE 768 320 768 -144
WIRE 768 320 288 320
WIRE 800 320 768 320
WIRE 864 320 832 320
WIRE 16 352 16 320
WIRE 16 400 16 384
WIRE 16 480 16 464
WIRE 16 528 16 512
WIRE 16 528 0 528
FLAG -992 -160 JP1
IOPIN -992 -160 BiDir
FLAG 16 272 JP1
IOPIN 16 272 BiDir
FLAG -992 224 JP4
IOPIN -992 224 BiDir
FLAG -64 -64 JP5
IOPIN -64 -64 BiDir
FLAG 800 -144 JP3
IOPIN 800 -144 BiDir
FLAG 1168 96 VDD
IOPIN 1168 96 BiDir
FLAG 1168 272 0
FLAG -432 -160 JP2
IOPIN -432 -160 BiDir
FLAG 1040 96 VEE
IOPIN 1040 96 BiDir
FLAG 1040 272 0
FLAG -992 -480 JP8
IOPIN -992 -480 BiDir
FLAG -784 -352 VDD
IOPIN -784 -352 BiDir
FLAG -704 112 VEE
IOPIN -704 112 BiDir
FLAG 176 112 VEE
IOPIN 176 112 BiDir
FLAG 112 -368 VDD
IOPIN 112 -368 BiDir
FLAG 0 528 JP4
IOPIN 0 528 BiDir
FLAG -1072 -64 BINH
IOPIN -1072 -64 BiDir
FLAG 864 320 AINH
IOPIN 864 320 BiDir
SYMBOL voltage 1168 128 R0
SYMATTR InstName V1
SYMATTR Value {VDD}
SYMBOL voltage 1040 128 R0
SYMATTR InstName V2
SYMATTR Value {VEE}
SYMBOL nmos -784 -16 R0
SYMATTR InstName M1
SYMATTR Value cd4007-nmos
SYMBOL nmos -528 -16 R0
SYMATTR InstName M2
SYMATTR Value cd4007-nmos
SYMBOL pmos -784 -240 M180
SYMATTR InstName M3
SYMATTR Value cd4007-pmos
SYMBOL cross_point -736 -208 R90
SYMATTR InstName XTL2
SYMBOL cross_point -880 -160 R180
SYMATTR InstName XBL6
SYMBOL cross_point -736 -416 R270
SYMATTR InstName XTL1
SYMBOL pmos -528 -240 M180
SYMATTR InstName M4
SYMATTR Value cd4007-pmos
SYMBOL cross_point -480 -208 R90
SYMATTR InstName XBL2
SYMBOL cross_point -608 -96 R180
SYMATTR InstName XBL3
SYMBOL cross_point -480 -368 R270
SYMATTR InstName XBL1
SYMBOL cross_point -736 160 R90
SYMATTR InstName XBL7
SYMBOL cross_point -480 112 R90
SYMATTR InstName XBL5
SYMBOL cross_point -736 -48 R270
SYMATTR InstName XTL7
SYMBOL cross_point -480 -48 R270
SYMATTR InstName XBL4
SYMBOL pmos -272 -240 M180
SYMATTR InstName M5
SYMBOL cross_point -176 -96 R0
SYMATTR InstName XTL3
SYMBOL cross_point -352 -96 R180
SYMATTR InstName XTL5
SYMBOL cross_point -224 -368 R270
SYMATTR InstName XTL4
SYMBOL nmos -272 -16 R0
SYMATTR InstName M6
SYMATTR Value cd4007-nmos
SYMBOL cross_point -224 112 R90
SYMATTR InstName XTL6
SYMBOL pmos 96 -240 M180
SYMATTR InstName M7
SYMATTR Value cd4007-pmos
SYMBOL cross_point 144 -208 R90
SYMATTR InstName XTL11
SYMBOL cross_point 0 -128 R180
SYMATTR InstName XBL15
SYMBOL cross_point 144 -416 R270
SYMATTR InstName XTL10
SYMBOL pmos 352 -240 M180
SYMATTR InstName M8
SYMATTR Value cd4007-pmos
SYMBOL cross_point 400 -208 R90
SYMATTR InstName XBL11
SYMBOL cross_point 256 -128 R180
SYMATTR InstName XBL12
SYMBOL cross_point 400 -368 R270
SYMATTR InstName XBL10
SYMBOL pmos 608 -240 M180
SYMATTR InstName M9
SYMATTR Value cd4007-pmos
SYMBOL cross_point 704 -144 R0
SYMATTR InstName XTL12
SYMBOL cross_point 512 -96 R180
SYMATTR InstName XTL14
SYMBOL cross_point 656 -368 R270
SYMATTR InstName XTL13
SYMBOL nmos 96 -16 R0
SYMATTR InstName M10
SYMATTR Value cd4007-nmos
SYMBOL cross_point 144 160 R90
SYMATTR InstName XBL16
SYMBOL cross_point 144 -48 R270
SYMATTR InstName XTL16
SYMBOL nmos 352 -16 R0
SYMATTR InstName M11
SYMATTR Value cd4007-nmos
SYMBOL cross_point 400 112 R90
SYMATTR InstName XBL14
SYMBOL cross_point 400 -48 R270
SYMATTR InstName XBL13
SYMBOL nmos 608 -32 R0
SYMATTR InstName M12
SYMATTR Value cd4007-nmos
SYMBOL cross_point 656 96 R90
SYMATTR InstName XTL15
SYMBOL res 224 304 R90
WINDOW 0 0 56 VBottom 2
WINDOW 3 32 56 VTop 2
SYMATTR InstName R1
SYMATTR Value 47k
SYMBOL cap 32 464 R180
WINDOW 0 24 56 Left 2
WINDOW 3 24 8 Left 2
SYMATTR InstName C1
SYMATTR Value 0.22µ
SYMBOL cross_point 16 368 R270
SYMATTR InstName XTL9
SYMBOL cross_point 272 320 R0
SYMATTR InstName XTL8
SYMBOL cross_point 64 320 M0
SYMATTR InstName XBL8
SYMBOL cross_point 16 496 M90
SYMATTR InstName XBL9
SYMBOL cross_point -992 -64 R0
SYMATTR InstName X1
SYMBOL cross_point 816 320 M0
SYMATTR InstName X2
TEXT 952 -104 Left 2 !.global VDD\n.global VEE\n.param VDD=5\n.param VEE=-5
TEXT 960 24 Left 2 !;op
TEXT 1160 -64 Left 2 !.lib CD4007.lib
TEXT -928 -424 Left 2 ;DIPL1\nCD4007
TEXT -48 -424 Left 2 ;DIPL2\nCD4007
TEXT 1152 -32 Left 2 !.tran 0 70m 0 startup
TEXT 88 384 Left 3 ;Notes:\nNodes JP1-8 can connect directly to BB pins TL1-16, BL1-16 (left hand BB)\nNodes JP9-16 can connect directly to BB pins TR2-17, BR1-16 (right hand BB)\nBB pin TL17 can connect to any of JP1-4 and JP13-16\nBB pin TR1 can connect to any of JP1-4 and JP13-16\nNodes JP1-4 can connect directly to any of JP9-12 (and JP5-8*)\nNodes JP13-16 can connect directly to any of JP5-8 (and JP9-12*)\nAINH, BINH, CINH, AWG1, AWG2 can connect directly to any of JP1-4 and JP13-16
RECTANGLE Normal -128 -448 -960 192 1
RECTANGLE Normal 752 -448 -80 192 1
