Version 4
SHEET 1 904 680
WIRE 448 0 384 0
WIRE 528 0 480 0
WIRE -320 96 -368 96
WIRE -272 96 -320 96
WIRE -144 96 -144 32
WIRE -144 96 -240 96
WIRE -128 96 -144 96
WIRE -96 96 -128 96
WIRE -48 96 -64 96
WIRE 48 96 32 96
WIRE 112 96 112 48
WIRE 112 96 80 96
WIRE 128 96 112 96
WIRE 160 96 128 96
WIRE 208 96 192 96
WIRE 304 96 288 96
WIRE 352 96 352 48
WIRE 352 96 336 96
WIRE 368 96 352 96
WIRE 384 96 384 0
WIRE 384 96 368 96
WIRE 400 96 384 96
WIRE 464 96 432 96
WIRE 528 96 464 96
WIRE -320 128 -320 96
WIRE -320 128 -384 128
WIRE -256 128 -320 128
WIRE 464 144 464 96
WIRE -384 160 -384 128
WIRE -256 160 -256 128
WIRE -128 160 -128 96
WIRE 128 160 128 96
WIRE 368 160 368 96
WIRE -384 272 -384 240
WIRE -320 272 -384 272
WIRE -256 272 -256 224
WIRE -256 272 -320 272
WIRE -128 272 -128 224
WIRE 128 272 128 224
WIRE 368 272 368 224
WIRE 464 272 464 224
WIRE -320 288 -320 272
WIRE -320 384 -320 368
FLAG 464 272 0
FLAG -144 32 JP3
IOPIN -144 32 BiDir
FLAG -128 272 0
FLAG 112 48 JP2
IOPIN 112 48 BiDir
FLAG 128 272 0
FLAG -320 384 0
FLAG -368 96 BINH
IOPIN -368 96 BiDir
FLAG 528 96 AWG1
IOPIN 528 96 BiDir
FLAG 352 48 JP1
IOPIN 352 48 BiDir
FLAG 368 272 0
FLAG 528 0 AINH
IOPIN 528 0 BiDir
SYMBOL voltage 464 128 R0
WINDOW 123 0 0 Left 0
WINDOW 39 24 124 Left 2
SYMATTR SpiceLine Rser=1
SYMATTR InstName VAWGA
SYMATTR Value PULSE(0.1 3.6 1u 10n 10n 500u 1m)
SYMBOL cap 352 160 R0
SYMATTR InstName C1
SYMATTR Value 48p
SYMBOL cap 112 160 R0
SYMATTR InstName C2
SYMATTR Value 48p
SYMBOL cap -272 160 R0
SYMATTR InstName Cscope
SYMATTR Value 5p
SYMBOL res -400 144 R0
SYMATTR InstName Rscope
SYMATTR Value 1000k
SYMBOL res 304 80 R90
WINDOW 0 0 56 VBottom 2
WINDOW 3 32 56 VTop 2
SYMATTR InstName R1
SYMATTR Value 47k
SYMBOL res 48 80 R90
WINDOW 0 0 56 VBottom 2
WINDOW 3 32 56 VTop 2
SYMATTR InstName R2
SYMATTR Value 47k
SYMBOL cross_point 320 96 R0
SYMATTR InstName XBL2
SYMBOL cross_point 64 96 R0
SYMATTR InstName XBL1
SYMBOL cross_point 176 96 M0
SYMATTR InstName XTL2
SYMBOL cross_point -80 96 M0
SYMATTR InstName XTL1
SYMBOL cross_point -256 96 R0
SYMATTR InstName X5
SYMBOL cross_point 416 96 M0
SYMATTR InstName X6
SYMBOL cap -144 160 R0
SYMATTR InstName C3
SYMATTR Value 48p
SYMBOL cross_point 464 0 M0
SYMATTR InstName X7
SYMBOL voltage -320 272 R0
SYMATTR InstName V1
SYMATTR Value 2.5
TEXT 456 56 Left 2 !.tran 0 2m 0u
