Version 4
SHEET 1 1728 792
WIRE 32 96 16 96
WIRE 80 96 64 96
WIRE 160 96 144 96
WIRE 208 96 192 96
WIRE 240 96 208 96
WIRE 288 96 272 96
WIRE 384 96 368 96
WIRE 448 96 416 96
WIRE 256 208 256 192
WIRE -32 224 -144 224
WIRE 16 224 16 96
WIRE 16 224 -32 224
WIRE 160 224 16 224
WIRE 224 224 192 224
WIRE 320 240 288 240
WIRE 448 240 448 96
WIRE 448 240 352 240
WIRE 512 240 448 240
WIRE 560 240 512 240
WIRE 160 256 80 256
WIRE 224 256 192 256
WIRE -144 272 -144 224
WIRE -32 272 -32 224
WIRE 256 288 256 272
WIRE 80 304 80 256
WIRE 512 304 512 240
WIRE 560 304 512 304
WIRE 640 304 592 304
WIRE -32 320 -32 304
WIRE -144 336 -144 304
WIRE -336 384 -336 352
WIRE 80 384 80 304
WIRE 112 384 80 384
WIRE 240 384 224 384
WIRE 304 384 272 384
WIRE 304 416 304 384
WIRE 512 416 512 304
WIRE -32 432 -32 384
WIRE 80 432 80 384
WIRE -144 480 -144 416
WIRE 80 480 80 464
WIRE 304 480 304 448
WIRE 368 480 304 480
WIRE 512 480 512 448
WIRE 512 480 448 480
WIRE -336 496 -336 464
WIRE -336 496 -416 496
WIRE -336 528 -336 496
WIRE -416 544 -416 496
WIRE 304 576 304 480
WIRE 336 576 304 576
WIRE 512 576 512 480
WIRE 512 576 400 576
WIRE 80 592 80 560
WIRE -336 640 -336 608
WIRE 304 656 304 576
WIRE 416 656 304 656
WIRE 512 656 512 576
WIRE 512 656 480 656
WIRE 80 704 80 672
FLAG -416 544 0
FLAG -336 352 VDD
FLAG 256 288 VDD
FLAG -336 640 VEE
FLAG 256 192 VEE
FLAG -32 432 0
FLAG -144 480 0
FLAG 80 704 0
FLAG 560 240 JP13
IOPIN 560 240 BiDir
FLAG 208 96 JP9
IOPIN 208 96 BiDir
FLAG 80 304 JP15
IOPIN 80 304 BiDir
FLAG 304 384 JP10
IOPIN 304 384 BiDir
FLAG -144 224 JP14
IOPIN -144 224 BiDir
FLAG 640 304 AINH
IOPIN 640 304 BiDir
SYMBOL voltage -336 368 R0
WINDOW 123 0 0 Left 0
WINDOW 39 0 0 Left 0
SYMATTR InstName V1
SYMATTR Value 5
SYMBOL voltage -336 512 R0
WINDOW 123 0 0 Left 0
WINDOW 39 0 0 Left 0
SYMATTR InstName V2
SYMATTR Value 5
SYMBOL res 384 80 R90
WINDOW 0 0 56 VBottom 2
WINDOW 3 32 56 VTop 2
SYMATTR InstName R1
SYMATTR Value 10k
SYMBOL res 464 464 R90
WINDOW 0 0 56 VBottom 2
WINDOW 3 32 56 VTop 2
SYMATTR InstName R2
SYMATTR Value 4.7k
SYMBOL res 240 368 R90
WINDOW 0 0 56 VBottom 2
WINDOW 3 32 56 VTop 2
SYMATTR InstName R3
SYMATTR Value 10k
SYMBOL res 96 576 R180
WINDOW 0 36 76 Left 2
WINDOW 3 36 40 Left 2
SYMATTR InstName R4
SYMATTR Value 4.7k
SYMBOL res 96 688 R180
WINDOW 0 36 76 Left 2
WINDOW 3 36 40 Left 2
SYMATTR InstName R5
SYMATTR Value 2k
SYMBOL cap 144 80 R90
WINDOW 0 0 32 VBottom 2
WINDOW 3 32 32 VTop 2
SYMATTR InstName C1
SYMATTR Value 10nF
SYMBOL cap -48 384 M180
WINDOW 0 -20 57 Left 2
WINDOW 3 -45 8 Left 2
SYMATTR InstName C2
SYMATTR Value 10nF
SYMBOL res -128 432 R180
WINDOW 0 36 76 Left 2
WINDOW 3 36 40 Left 2
SYMATTR InstName R6
SYMATTR Value 10k
SYMBOL diode 400 560 R90
WINDOW 0 0 32 VBottom 2
WINDOW 3 32 32 VTop 2
SYMATTR InstName D1
SYMATTR Value 1N4148
SYMBOL diode 416 672 R270
WINDOW 0 32 32 VTop 2
WINDOW 3 0 32 VBottom 2
SYMATTR InstName D2
SYMATTR Value 1N4148
SYMBOL cross_point 48 96 M0
SYMATTR InstName XTR6
SYMBOL cross_point 256 96 M0
SYMATTR InstName XBR8
SYMBOL cross_point 336 240 R0
SYMATTR InstName XTR4
SYMBOL cross_point 176 224 M0
SYMATTR InstName XBR4
SYMBOL cross_point 176 256 M0
SYMATTR InstName XBR3
SYMBOL cross_point 176 96 R0
SYMATTR InstName XTR7
SYMBOL cross_point 400 96 R0
SYMATTR InstName XTR8
SYMBOL cross_point -32 288 M270
SYMATTR InstName XBR7
SYMBOL cross_point 512 432 M270
SYMATTR InstName XBR14
SYMBOL cross_point 256 384 R0
SYMATTR InstName XBR9
SYMBOL cross_point 304 432 M270
SYMATTR InstName XBR11
SYMBOL cross_point 128 384 M0
SYMATTR InstName XTR9
SYMBOL cross_point 80 448 M270
SYMATTR InstName XTR12
SYMBOL cross_point 576 304 M0
SYMATTR InstName X14
SYMBOL OpAmps\\OP07 256 304 M180
SYMATTR InstName U2
SYMBOL cross_point -144 288 M270
SYMATTR InstName XBR6
TEXT -360 120 Left 2 !.tran 0.04 startup
TEXT -24 -24 Left 4 ;Wein Bridge Oscillator
TEXT 592 520 Left 2 ;Run time domain simulation\ntry adjusting R5, take FFT, note\ndistortion for different gains
TEXT 496 -72 Left 2 ;Notes:\nNodes JP1-8 can connect directly to BB pins TL1-16, BL1-16 (left hand BB)\nNodes JP9-16 can connect directly to BB pins TR2-17, BR1-16 (right hand BB)\nBB pin TL17 can connect to any of JP1-4 and JP13-16\nBB pin TR1 can connect to any of JP1-4 and JP13-16\nNodes JP1-4 can connect directly to any of JP9-12 (and JP5-8*)\nNodes JP13-16 can connect directly to any of JP5-8 (and JP9-12*)\nAINH, BINH, CINH, AWG1, AWG2 can connect directly to any of JP1-4 and JP13-16
